Version 4
SHEET 1 1668 680
WIRE 912 -256 592 -256
WIRE 1136 -256 912 -256
WIRE 1440 -256 1136 -256
WIRE 1600 -256 1440 -256
WIRE 912 -160 912 -256
WIRE 1136 -144 1136 -256
WIRE 1600 -16 1600 -256
WIRE 912 16 912 -80
WIRE 1136 16 1136 -80
WIRE 1136 16 912 16
WIRE 1152 112 976 112
WIRE 1440 112 1440 -256
WIRE 1440 112 1376 112
WIRE 976 144 976 112
WIRE 1152 176 1040 176
WIRE 1600 176 1600 64
WIRE 1600 176 1376 176
WIRE 640 224 560 224
WIRE 752 224 704 224
WIRE 912 224 912 16
WIRE 912 224 752 224
WIRE 1040 224 1040 176
WIRE 1040 224 912 224
WIRE 1152 240 976 240
WIRE 1600 240 1600 176
WIRE 1600 240 1376 240
WIRE 1152 304 1088 304
WIRE 1424 304 1376 304
WIRE 1600 320 1600 240
WIRE 976 368 976 240
WIRE 976 368 864 368
WIRE 1600 400 1600 384
FLAG 1424 368 0
FLAG 1600 400 0
FLAG 976 144 0
FLAG 752 224 trig
FLAG 1088 304 Vcc
FLAG 864 368 PWM
IOPIN 864 368 Out
FLAG 592 -256 Vcc
IOPIN 592 -256 In
FLAG 560 224 enc
IOPIN 560 224 In
SYMBOL res 896 -176 R0
SYMATTR InstName R1
SYMATTR Value 4.7k
SYMBOL diode 1152 -80 R180
WINDOW 0 24 64 Left 2
WINDOW 3 24 0 Left 2
SYMATTR InstName D1
SYMATTR Value 1N4148
SYMBOL cap 640 240 R270
WINDOW 0 32 32 VTop 2
WINDOW 3 0 32 VBottom 2
SYMATTR InstName C1
SYMATTR Value 0.001µ
SYMBOL LM555 1264 208 R0
SYMATTR InstName U1
SYMBOL res 1584 -32 R0
SYMATTR InstName R2
SYMATTR Value 570
SYMBOL cap 1408 304 R0
SYMATTR InstName C4
SYMATTR Value 0.1µ
SYMBOL cap 1584 320 R0
SYMATTR InstName C2
SYMATTR Value 1µ
