Version 4
SHEET 1 1416 680
WIRE 384 -544 176 -544
WIRE 800 -480 592 -480
WIRE 384 -432 384 -544
WIRE 592 -368 592 -480
WIRE 800 -352 800 -480
WIRE 384 -320 384 -352
WIRE 528 -320 384 -320
WIRE 384 -272 384 -320
WIRE 800 -240 800 -272
WIRE 592 -224 592 -272
WIRE 384 -128 384 -192
WIRE 592 -128 592 -144
WIRE -144 -64 -256 -64
WIRE -64 -64 -144 -64
WIRE 16 -64 -64 -64
WIRE -256 -16 -256 -64
WIRE -144 -16 -144 -64
WIRE -64 -16 -64 -64
WIRE 736 80 736 16
WIRE 736 80 144 80
WIRE -256 112 -256 64
WIRE -144 112 -144 48
WIRE -64 112 -64 48
WIRE 272 176 224 176
WIRE 528 176 496 176
WIRE 224 192 224 176
WIRE 144 240 144 80
WIRE 272 240 144 240
WIRE 736 240 736 80
WIRE 736 240 496 240
WIRE 272 304 224 304
WIRE 736 304 736 240
WIRE 736 304 496 304
WIRE 832 304 736 304
WIRE 272 368 224 368
WIRE 560 368 496 368
WIRE 560 416 560 368
WIRE 736 416 736 304
WIRE 560 512 560 480
WIRE 736 512 736 480
FLAG -256 112 0
FLAG -144 112 0
FLAG -64 112 0
FLAG 224 192 0
FLAG 560 512 0
FLAG 736 512 0
FLAG 224 368 Vcc
FLAG 16 -64 Vcc
FLAG 224 304 Vout
IOPIN 224 304 Out
FLAG 832 304 Vcap
IOPIN 832 304 Out
FLAG 528 176 Vcc
FLAG 384 -128 0
FLAG 800 -240 0
FLAG 176 -544 Vcc
FLAG 736 16 Source
FLAG 592 -128 Source
SYMBOL cap -80 -16 R0
SYMATTR InstName C2
SYMATTR Value 0.1µ
SYMBOL voltage -256 -32 R0
WINDOW 123 0 0 Left 0
WINDOW 39 0 0 Left 0
SYMATTR InstName V1
SYMATTR Value 5
SYMBOL polcap -160 -16 R0
SYMATTR InstName C1
SYMATTR Value 47µ
SYMBOL LM555 384 272 R0
SYMATTR InstName U1
SYMBOL cap 544 416 R0
SYMATTR InstName C3
SYMATTR Value 0.1µ
SYMBOL cap 720 416 R0
SYMATTR InstName C4
SYMATTR Value 100n
SYMBOL voltage 800 -368 R0
WINDOW 123 0 0 Left 0
WINDOW 39 0 0 Left 0
SYMATTR InstName V3
SYMATTR Value 10
SYMBOL res 368 -288 R0
SYMATTR InstName R1
SYMATTR Value 10k
SYMBOL res 368 -448 R0
SYMATTR InstName R2
SYMATTR Value 39k
SYMBOL res 576 -240 R0
SYMATTR InstName R3
SYMATTR Value 210k
SYMBOL pnp 528 -272 M180
SYMATTR InstName Q1
SYMATTR Value 2N2907
TEXT -224 256 Left 2 !.tran 0 55m 5m
