Version 4
SHEET 1 880 856
WIRE -432 336 -560 336
WIRE -368 336 -432 336
WIRE -16 336 -368 336
WIRE -560 416 -560 336
WIRE -368 432 -368 336
WIRE -560 544 -560 496
WIRE -368 544 -368 496
WIRE -16 576 -16 336
WIRE -432 592 -432 336
WIRE -432 592 -448 592
WIRE -304 592 -432 592
WIRE -160 592 -224 592
WIRE -128 592 -160 592
WIRE 160 592 128 592
WIRE 208 592 160 592
WIRE -128 624 -128 592
WIRE -96 624 -128 624
WIRE 128 624 128 592
WIRE 128 624 64 624
WIRE 352 624 320 624
WIRE 400 624 352 624
WIRE -96 656 -128 656
WIRE 128 656 64 656
WIRE 352 656 352 624
WIRE -432 672 -448 672
WIRE -304 672 -432 672
WIRE -176 672 -224 672
WIRE -128 672 -128 656
WIRE -128 672 -176 672
WIRE 128 688 128 656
WIRE 160 688 128 688
WIRE 208 688 160 688
WIRE 400 688 320 688
WIRE -432 784 -432 672
WIRE -208 784 -432 784
WIRE -16 784 -16 704
WIRE -16 784 -208 784
WIRE -208 816 -208 784
FLAG 352 656 0
FLAG -208 816 0
FLAG -368 544 0
FLAG -560 544 0
FLAG -160 592 b1
FLAG -176 672 b2
FLAG 160 592 dc1
FLAG 160 688 dc2
FLAG -448 592 o1
IOPIN -448 592 In
FLAG -448 672 o2
IOPIN -448 672 In
FLAG 400 624 omega
IOPIN 400 624 Out
FLAG 400 688 enc
IOPIN 400 688 Out
SYMBOL Lab_3A -16 640 R0
SYMATTR InstName U1
SYMBOL res -208 576 R90
WINDOW 0 0 56 VBottom 2
WINDOW 3 32 56 VTop 2
SYMATTR InstName RB1
SYMATTR Value 470
SYMBOL res -208 656 R90
WINDOW 0 0 56 VBottom 2
WINDOW 3 32 56 VTop 2
SYMATTR InstName RB2
SYMATTR Value 470
SYMBOL cap -384 432 R0
SYMATTR InstName C1
SYMATTR Value 47µF
SYMBOL voltage -560 400 R0
SYMATTR InstName V_10
SYMATTR Value 10
SYMBOL DC_motor_model(1) 256 640 R0
SYMATTR InstName X1
TEXT -594 840 Left 2 !.tran 100ms startup
