Version 4
SHEET 1 1924 808
WIRE 16 -96 -96 -96
WIRE 96 -96 16 -96
WIRE 176 -96 96 -96
WIRE 320 -96 176 -96
WIRE 560 -96 320 -96
WIRE 880 -96 656 -96
WIRE 1104 -96 880 -96
WIRE 1248 -96 1104 -96
WIRE 1328 -96 1248 -96
WIRE 1408 -96 1328 -96
WIRE 1536 -96 1408 -96
WIRE 1248 -64 1248 -96
WIRE 1328 -64 1328 -96
WIRE 1408 -64 1408 -96
WIRE 1536 -64 1536 -96
WIRE -96 -48 -96 -96
WIRE 16 -48 16 -96
WIRE 96 -48 96 -96
WIRE 176 -48 176 -96
WIRE 1248 48 1248 0
WIRE 1328 48 1328 0
WIRE 1408 48 1408 0
WIRE 16 64 16 16
WIRE 96 64 96 16
WIRE 176 64 176 16
WIRE 1536 80 1536 16
WIRE -96 96 -96 32
WIRE 560 128 560 -96
WIRE 656 128 656 -96
WIRE 512 160 272 160
WIRE 512 192 368 192
WIRE 800 192 704 192
WIRE 960 192 880 192
WIRE 512 224 464 224
WIRE 1104 256 1104 -96
WIRE 1312 272 1296 272
WIRE 960 304 960 192
WIRE 1008 304 960 304
WIRE 1248 304 1200 304
WIRE 1296 304 1296 272
WIRE 1296 304 1248 304
WIRE 1504 304 1424 304
WIRE 368 336 368 192
WIRE 1008 368 960 368
WIRE 1264 368 1200 368
WIRE 1312 368 1264 368
WIRE 1488 368 1424 368
WIRE 560 400 528 400
WIRE 688 400 656 400
WIRE 560 416 560 400
WIRE 656 416 656 400
WIRE 512 448 272 448
WIRE 1104 448 1104 400
WIRE 368 480 368 336
WIRE 512 480 368 480
WIRE 784 480 704 480
WIRE 960 480 960 368
WIRE 960 480 864 480
WIRE 464 512 464 224
WIRE 512 512 464 512
WIRE 1488 544 1488 368
WIRE 112 624 16 624
WIRE 304 624 192 624
WIRE 368 624 368 480
WIRE 368 624 304 624
WIRE 304 656 304 624
WIRE 1200 688 1136 688
WIRE 1488 704 1488 544
WIRE 1488 704 1328 704
WIRE 464 720 464 512
WIRE 816 720 464 720
WIRE 1200 720 816 720
WIRE 304 768 304 720
FLAG 1248 304 dc1
FLAG 1264 368 dc2
FLAG 1504 304 omega
IOPIN 1504 304 Out
FLAG 1104 448 0
FLAG 1488 544 enc
FLAG 16 624 REF
IOPIN 16 624 In
FLAG 272 160 CW
IOPIN 272 160 In
FLAG 272 448 CC
IOPIN 272 448 In
FLAG 528 400 +5V_VCC
FLAG 688 400 +10V_DCsupply
FLAG 816 720 sense_PWM
FLAG 1136 688 +5V_VCC
FLAG 304 768 0
FLAG -96 96 0
FLAG 16 64 0
FLAG 96 64 0
FLAG 176 64 0
FLAG 1248 48 0
FLAG 1328 48 0
FLAG 1408 48 0
FLAG 1536 80 0
FLAG 368 336 speed_ref
FLAG 320 -96 +5V_VCC
FLAG 880 -96 +10V_DCsupply
SYMBOL voltage -96 -64 R0
WINDOW 123 0 0 Left 0
WINDOW 39 0 0 Left 0
SYMATTR InstName VCC
SYMATTR Value 5
SYMBOL voltage 1536 -80 R0
SYMATTR InstName V_10V
SYMATTR Value 10
SYMBOL Feedback 608 192 R0
SYMATTR InstName X1
SYMBOL Feedback 608 480 R0
SYMATTR InstName X2
SYMBOL Motor_Model 1104 336 R0
SYMATTR InstName X3
SYMBOL DC_motor_model 1360 320 R0
SYMATTR InstName X4
SYMBOL DC_motor_model_final 1264 704 R0
SYMATTR InstName X5
SYMBOL res 896 176 R90
WINDOW 0 0 56 VBottom 2
WINDOW 3 32 56 VTop 2
SYMATTR InstName Rb1
SYMATTR Value 470
SYMBOL res 880 464 R90
WINDOW 0 0 56 VBottom 2
WINDOW 3 32 56 VTop 2
SYMATTR InstName Rb2
SYMATTR Value 470
SYMBOL cap 288 656 R0
SYMATTR InstName C1
SYMBOL res 208 608 R90
WINDOW 0 0 56 VBottom 2
WINDOW 3 32 56 VTop 2
SYMATTR InstName R1
SYMBOL cap 160 -48 R0
SYMATTR InstName C2
SYMATTR Value 0.1µ
SYMBOL cap 80 -48 R0
SYMATTR InstName C3
SYMATTR Value 0.1µ
SYMBOL cap 0 -48 R0
SYMATTR InstName C4
SYMATTR Value 47µ
SYMBOL cap 1232 -64 R0
SYMATTR InstName C5
SYMATTR Value 0.1µ
SYMBOL cap 1312 -64 R0
SYMATTR InstName C6
SYMATTR Value 0.1µ
SYMBOL cap 1392 -64 R0
SYMATTR InstName C7
SYMATTR Value 47µ
TEXT -130 792 Left 2 !.tran 0 0.8 0 10u uic
