Version 4
SHEET 1 880 788
WIRE -432 336 -560 336
WIRE -368 336 -432 336
WIRE -16 336 -368 336
WIRE -560 416 -560 336
WIRE -368 432 -368 336
WIRE -560 544 -560 496
WIRE -368 544 -368 496
WIRE -16 576 -16 336
WIRE -432 592 -432 336
WIRE -304 592 -432 592
WIRE -128 592 -224 592
WIRE -128 624 -128 592
WIRE -96 624 -128 624
WIRE -96 656 -128 656
WIRE -304 672 -432 672
WIRE -128 672 -128 656
WIRE -128 672 -224 672
WIRE -432 784 -432 672
WIRE -16 784 -16 704
WIRE -16 784 -432 784
SYMBOL Lab_3A -16 640 R0
SYMATTR InstName U1
SYMBOL res -208 576 R90
WINDOW 0 0 56 VBottom 2
WINDOW 3 32 56 VTop 2
SYMATTR InstName R1
SYMBOL res -208 656 R90
WINDOW 0 0 56 VBottom 2
WINDOW 3 32 56 VTop 2
SYMATTR InstName R2
SYMBOL cap -384 432 R0
SYMATTR InstName C1
SYMBOL voltage -560 400 R0
SYMATTR InstName V1
