Version 4
SHEET 1 1720 696
WIRE 128 0 32 0
WIRE 208 0 128 0
WIRE 320 0 208 0
WIRE 880 0 320 0
WIRE 880 32 880 0
WIRE 32 80 32 0
WIRE 128 96 128 0
WIRE 208 96 208 0
WIRE 720 160 336 160
WIRE 832 160 720 160
WIRE 880 160 880 112
WIRE 880 160 832 160
WIRE 720 176 720 160
WIRE 832 176 832 160
WIRE 32 208 32 160
WIRE 128 208 128 160
WIRE 208 208 208 160
WIRE 448 272 416 272
WIRE 688 272 672 272
WIRE 336 336 336 160
WIRE 448 336 336 336
WIRE 720 336 720 256
WIRE 720 336 672 336
WIRE 832 336 832 240
WIRE 832 336 720 336
WIRE 448 400 368 400
WIRE 880 400 880 160
WIRE 880 400 672 400
WIRE 944 400 880 400
WIRE 448 464 416 464
WIRE 752 464 672 464
WIRE 752 560 752 464
WIRE 880 560 880 400
WIRE 752 656 752 624
WIRE 880 656 880 624
FLAG 752 656 0
FLAG 880 656 0
FLAG 32 208 0
FLAG 128 208 0
FLAG 208 208 0
FLAG 416 272 0
FLAG 320 0 Vcc
FLAG 416 464 Vcc
FLAG 368 400 Vout
IOPIN 368 400 Out
FLAG 944 400 Vtri
IOPIN 944 400 Out
FLAG 688 272 Vcc
SYMBOL voltage 32 64 R0
WINDOW 123 0 0 Left 0
WINDOW 39 0 0 Left 0
SYMATTR InstName V1
SYMATTR Value 5
SYMBOL polcap 112 96 R0
SYMATTR InstName C1
SYMATTR Value 47µ
SYMBOL cap 192 96 R0
SYMATTR InstName C2
SYMATTR Value 0.1µ
SYMBOL LM555 560 368 R0
SYMATTR InstName U1
SYMBOL cap 736 560 R0
SYMATTR InstName C3
SYMATTR Value 100n
SYMBOL cap 864 560 R0
SYMATTR InstName C4
SYMATTR Value 100n
SYMBOL current 880 32 R0
SYMATTR InstName I1
SYMATTR Value 66.6µ
SYMBOL current 720 176 R0
WINDOW 123 0 0 Left 0
WINDOW 39 0 0 Left 0
SYMATTR InstName I2
SYMATTR Value 133µ
SYMBOL diode 848 240 R180
WINDOW 0 24 64 Left 2
WINDOW 3 24 0 Left 2
SYMATTR InstName D1
SYMATTR Value 1N914
TEXT 0 680 Left 2 !.tran 0 205m 5m uic
