Version 4
SHEET 1 880 680
WIRE 224 64 -464 64
WIRE 224 112 224 64
WIRE 496 128 464 128
WIRE 128 160 -176 160
WIRE 464 160 464 128
WIRE 464 160 320 160
WIRE 672 160 608 160
WIRE -464 224 -464 64
WIRE 128 224 48 224
WIRE 496 224 320 224
WIRE 672 224 608 224
WIRE -176 240 -176 160
WIRE 48 272 48 224
WIRE 224 336 224 256
WIRE -464 352 -464 304
WIRE -176 368 -176 320
FLAG -176 368 0
FLAG -464 352 0
FLAG 48 272 0
FLAG 224 336 0
FLAG 672 224 enc
FLAG 672 160 w
SYMBOL Motor_Model 224 192 R0
SYMATTR InstName X1
SYMBOL DC_motor_model 544 176 R0
SYMATTR InstName X2
SYMBOL voltage -176 224 R0
WINDOW 3 24 44 Left 2
WINDOW 123 0 0 Left 0
WINDOW 39 0 0 Left 0
SYMATTR InstName V1
SYMATTR Value PWL(150m 1 200m 3 250m 5 300m 7 350m 9)
SYMBOL voltage -464 208 R0
SYMATTR InstName V2
SYMATTR Value 10
TEXT -498 392 Left 2 !.tran 0 400m 100m uic
