Version 4
SHEET 1 2500 804
WIRE 1136 -416 960 -416
WIRE 1168 -416 1136 -416
WIRE 752 -384 560 -384
WIRE 752 -368 752 -384
WIRE 1168 -368 1168 -416
WIRE 960 -320 960 -416
WIRE 560 -304 560 -384
WIRE 752 -272 752 -288
WIRE 896 -272 752 -272
WIRE 752 -240 752 -272
WIRE 1168 -240 1168 -288
WIRE 960 -208 960 -224
WIRE 752 -112 752 -160
WIRE 880 -64 384 -64
WIRE 960 -64 960 -128
WIRE 960 -64 880 -64
WIRE 1088 -64 960 -64
WIRE 1248 -64 1088 -64
WIRE 704 -16 656 -16
WIRE 128 0 32 0
WIRE 208 0 128 0
WIRE 320 0 208 0
WIRE 704 32 704 -16
WIRE 32 80 32 0
WIRE 880 80 880 -64
WIRE 128 96 128 0
WIRE 208 96 208 0
WIRE 704 128 704 112
WIRE 816 128 704 128
WIRE 1088 128 1088 -64
WIRE 704 144 704 128
WIRE 32 208 32 160
WIRE 128 208 128 160
WIRE 208 208 208 160
WIRE 880 208 880 176
WIRE 704 240 704 224
WIRE 448 272 416 272
WIRE 720 272 672 272
WIRE 1712 320 1520 320
WIRE 384 336 384 -64
WIRE 448 336 384 336
WIRE 880 336 880 288
WIRE 880 336 672 336
WIRE 1088 336 1088 192
WIRE 1088 336 880 336
WIRE 448 400 368 400
WIRE 880 400 672 400
WIRE 1248 400 1248 -64
WIRE 1248 400 880 400
WIRE 1456 400 1248 400
WIRE 1648 400 1648 368
WIRE 1520 416 1520 320
WIRE 1616 416 1520 416
WIRE 2112 416 2112 336
WIRE 1712 432 1712 320
WIRE 1712 432 1680 432
WIRE 1744 432 1712 432
WIRE 1904 432 1824 432
WIRE 2080 432 1904 432
WIRE 1456 448 1456 400
WIRE 1616 448 1456 448
WIRE 2352 448 2144 448
WIRE 2400 448 2352 448
WIRE 448 464 416 464
WIRE 752 464 672 464
WIRE 2080 464 2032 464
WIRE 1904 480 1904 432
WIRE 1648 496 1648 464
WIRE 2112 496 2112 480
WIRE 2032 544 2032 464
WIRE 2192 544 2032 544
WIRE 2352 544 2352 448
WIRE 2352 544 2272 544
WIRE 752 560 752 464
WIRE 880 560 880 400
WIRE 2032 560 2032 544
WIRE 1904 608 1904 560
WIRE 752 656 752 624
WIRE 880 656 880 624
WIRE 2032 672 2032 640
WIRE 2032 784 2032 752
FLAG 752 656 0
FLAG 880 656 0
FLAG 32 208 0
FLAG 128 208 0
FLAG 208 208 0
FLAG 416 272 0
FLAG 320 0 Vcc
FLAG 720 272 Vcc
FLAG 416 464 Vcc
FLAG 368 400 Vrect
IOPIN 368 400 Out
FLAG 560 -304 Vcc
FLAG 704 240 0
FLAG 656 -16 Vcc
FLAG 752 -112 0
FLAG 1168 -240 0
FLAG 1648 496 0
FLAG 1136 -416 V10
FLAG 1648 368 V10
FLAG 1904 608 0
FLAG 2032 784 0
FLAG 2112 336 0
FLAG 2112 496 V10
FLAG 2400 448 Vtri
IOPIN 2400 448 Out
SYMBOL voltage 32 64 R0
WINDOW 123 0 0 Left 0
WINDOW 39 0 0 Left 0
SYMATTR InstName V1
SYMATTR Value 5
SYMBOL polcap 112 96 R0
SYMATTR InstName C1
SYMATTR Value 47µ
SYMBOL cap 192 96 R0
SYMATTR InstName C2
SYMATTR Value 0.1µ
SYMBOL LM555 560 368 R0
SYMATTR InstName U1
SYMBOL cap 736 560 R0
SYMATTR InstName C3
SYMATTR Value 100n
SYMBOL cap 864 560 R0
SYMATTR InstName C4
SYMATTR Value 100n
SYMBOL res 688 16 R0
SYMATTR InstName R1
SYMATTR Value 39k
SYMBOL res 688 128 R0
SYMATTR InstName R2
SYMATTR Value 10k
SYMBOL res 864 192 R0
SYMATTR InstName R3
SYMATTR Value 3k
SYMBOL npn 816 80 R0
SYMATTR InstName Q1
SYMATTR Value 2N2222
SYMBOL res 736 -384 R0
SYMATTR InstName R4
SYMATTR Value 39k
SYMBOL res 736 -256 R0
SYMATTR InstName R5
SYMATTR Value 10k
SYMBOL res 944 -224 R0
SYMATTR InstName R6
SYMATTR Value 120k
SYMBOL pnp 896 -224 M180
SYMATTR InstName Q2
SYMATTR Value 2N2907
SYMBOL voltage 1168 -384 R0
WINDOW 123 0 0 Left 0
WINDOW 39 0 0 Left 0
SYMATTR InstName V2
SYMATTR Value 10
SYMBOL diode 1104 192 R180
WINDOW 0 24 64 Left 2
WINDOW 3 24 0 Left 2
SYMATTR InstName D1
SYMBOL TLV272 1648 432 R0
SYMATTR InstName U3
SYMBOL res 1840 416 R90
WINDOW 0 0 56 VBottom 2
WINDOW 3 32 56 VTop 2
SYMATTR InstName R7
SYMATTR Value 3k
SYMBOL TLV272 2112 448 M180
SYMATTR InstName U2
SYMBOL res 1888 464 R0
SYMATTR InstName R8
SYMATTR Value 9k
SYMBOL res 2016 544 R0
SYMATTR InstName R9
SYMATTR Value 9k
SYMBOL res 2288 528 R90
WINDOW 0 0 56 VBottom 2
WINDOW 3 32 56 VTop 2
SYMATTR InstName R10
SYMATTR Value 3k
SYMBOL voltage 2032 656 R0
SYMATTR InstName V3
SYMATTR Value 3.3
TEXT 0 680 Left 2 !.tran 0 50m 5m uic
