Version 4
SHEET 1 1852 696
WIRE 128 0 32 0
WIRE 208 0 128 0
WIRE 320 0 208 0
WIRE 880 64 864 64
WIRE 32 80 32 0
WIRE 128 96 128 0
WIRE 208 96 208 0
WIRE 880 160 880 64
WIRE 880 160 336 160
WIRE 32 208 32 160
WIRE 128 208 128 160
WIRE 208 208 208 160
WIRE 448 272 416 272
WIRE 720 272 672 272
WIRE 336 336 336 160
WIRE 448 336 336 336
WIRE 880 336 880 160
WIRE 880 336 672 336
WIRE 1200 384 1200 336
WIRE 448 400 368 400
WIRE 880 400 880 336
WIRE 880 400 672 400
WIRE 1040 400 880 400
WIRE 1168 400 1040 400
WIRE 1296 416 1232 416
WIRE 1168 432 1120 432
WIRE 1520 448 1472 448
WIRE 1648 448 1600 448
WIRE 1728 448 1648 448
WIRE 448 464 416 464
WIRE 752 464 672 464
WIRE 1648 480 1648 448
WIRE 1200 496 1200 448
WIRE 1120 512 1120 432
WIRE 752 560 752 464
WIRE 880 560 880 400
WIRE 1648 576 1648 544
WIRE 752 656 752 624
WIRE 880 656 880 624
WIRE 1120 656 1120 592
FLAG 752 656 0
FLAG 880 656 0
FLAG 1200 496 0
FLAG 32 208 0
FLAG 128 208 0
FLAG 208 208 0
FLAG 416 272 0
FLAG 1120 656 0
FLAG 320 0 Vcc
FLAG 720 272 Vcc
FLAG 1200 336 Vcc
FLAG 416 464 Vcc
FLAG 368 400 Vout
IOPIN 368 400 Out
FLAG 1296 416 V_PWM
IOPIN 1296 416 Out
FLAG 1040 400 Vsaw
FLAG 1648 576 0
FLAG 1728 448 V_sin
IOPIN 1728 448 Out
FLAG 1472 448 V_PWM
IOPIN 1472 448 In
SYMBOL voltage 32 64 R0
WINDOW 123 0 0 Left 0
WINDOW 39 0 0 Left 0
SYMATTR InstName V1
SYMATTR Value 5
SYMBOL polcap 112 96 R0
SYMATTR InstName C1
SYMATTR Value 47µ
SYMBOL cap 192 96 R0
SYMATTR InstName C2
SYMATTR Value 0.1µ
SYMBOL LM555 560 368 R0
SYMATTR InstName U1
SYMBOL cap 736 560 R0
SYMATTR InstName C3
SYMATTR Value 0.1µ
SYMBOL cap 864 560 R0
SYMATTR InstName C4
SYMATTR Value 100n
SYMBOL TLC3702 1200 416 R0
SYMATTR InstName U2
SYMBOL voltage 1120 496 R0
SYMATTR InstName V2
SYMATTR Value SINE(2.4 0.7 10)
SYMBOL cap 1632 480 R0
SYMATTR InstName C5
SYMATTR Value 10µ
SYMBOL res 1616 432 R90
WINDOW 0 0 56 VBottom 2
WINDOW 3 32 56 VTop 2
SYMATTR InstName R1
SYMATTR Value 3.5k
SYMBOL CurrentSource 800 64 R0
SYMATTR InstName X1
TEXT 0 680 Left 2 !.tran 0 500mm 5m uic
