Version 4
SHEET 1 940 728
WIRE 192 80 112 80
WIRE 432 80 352 80
WIRE 672 96 592 96
WIRE 112 112 112 80
WIRE 352 112 352 80
WIRE 592 112 592 96
WIRE 64 208 64 176
WIRE 112 208 112 192
WIRE 112 208 64 208
WIRE 304 208 304 176
WIRE 352 208 352 192
WIRE 352 208 304 208
WIRE 544 208 544 176
WIRE 592 208 592 192
WIRE 592 208 544 208
WIRE 112 224 112 208
WIRE 352 224 352 208
WIRE 592 224 592 208
WIRE 672 272 592 272
WIRE 592 288 592 272
WIRE -48 368 -48 336
WIRE 80 368 80 336
WIRE 224 368 224 336
WIRE 384 368 384 336
WIRE 544 384 544 352
WIRE 592 384 592 368
WIRE 592 384 544 384
WIRE 592 400 592 384
WIRE -48 496 -48 448
WIRE 80 496 80 448
WIRE 224 496 224 448
WIRE 384 496 384 448
FLAG 112 224 0
FLAG 352 224 0
FLAG 592 224 0
FLAG 592 400 0
FLAG 384 496 0
FLAG 224 496 0
FLAG 80 496 0
FLAG -48 496 0
FLAG 64 128 V0
IOPIN 64 128 In
FLAG 304 128 V1
IOPIN 304 128 In
FLAG 544 128 V2
IOPIN 544 128 In
FLAG 544 304 V3
IOPIN 544 304 In
FLAG -48 336 V0
IOPIN -48 336 Out
FLAG 80 336 V1
IOPIN 80 336 Out
FLAG 224 336 V2
IOPIN 224 336 Out
FLAG 384 336 V3
IOPIN 384 336 Out
FLAG 672 272 Vecho
IOPIN 672 272 Out
FLAG 672 96 V1b
IOPIN 672 96 Out
FLAG 432 80 Vin
IOPIN 432 80 Out
FLAG 192 80 Vxmtr
IOPIN 192 80 Out
SYMBOL e 112 96 R0
SYMATTR InstName E1
SYMATTR Value 5
SYMBOL e 352 96 R0
SYMATTR InstName E2
SYMATTR Value .02
SYMBOL e 592 96 R0
SYMATTR InstName E3
SYMATTR Value .5
SYMBOL e 592 272 R0
SYMATTR InstName E4
SYMATTR Value 5
SYMBOL voltage 384 352 R0
WINDOW 123 0 0 Left 0
WINDOW 39 0 0 Left 0
SYMATTR InstName V1
SYMATTR Value wavefile=HC_SR04_sample001b.wav chan=3
SYMBOL voltage -48 352 R0
SYMATTR InstName V2
SYMATTR Value wavefile=HC_SR04_sample001b.wav chan=0
SYMBOL voltage 80 352 R0
SYMATTR InstName V3
SYMATTR Value wavefile=HC_SR04_sample001b.wav chan=1
SYMBOL voltage 224 352 R0
WINDOW 123 0 0 Left 0
WINDOW 39 0 0 Left 0
SYMATTR InstName V4
SYMATTR Value wavefile=HC_SR04_sample001b.wav chan=2
TEXT -56 584 Left 2 !.tran 8m uic
