Version 4
SHEET 1 1892 680
WIRE 464 -304 416 -304
WIRE 576 -304 544 -304
WIRE 848 -304 784 -304
WIRE 1120 -304 912 -304
WIRE 1360 -272 1328 -272
WIRE 1504 -272 1440 -272
WIRE 1008 -256 960 -256
WIRE 1120 -256 1120 -304
WIRE 1120 -256 1088 -256
WIRE 64 -224 -16 -224
WIRE 96 -224 64 -224
WIRE 64 -176 64 -224
WIRE 160 -176 64 -176
WIRE 304 -176 240 -176
WIRE 416 -176 416 -304
WIRE 416 -176 368 -176
WIRE 464 -176 416 -176
WIRE 576 -176 576 -304
WIRE 656 -176 576 -176
WIRE 784 -176 784 -304
WIRE 784 -176 736 -176
WIRE 848 -176 784 -176
WIRE 960 -176 960 -256
WIRE 960 -176 912 -176
WIRE 1008 -176 960 -176
WIRE 576 -160 576 -176
WIRE 576 -160 528 -160
WIRE 1120 -160 1120 -256
WIRE 1120 -160 1072 -160
WIRE 1136 -160 1120 -160
WIRE 1264 -160 1216 -160
WIRE 1328 -160 1328 -272
WIRE 1360 -160 1328 -160
WIRE 1504 -144 1504 -272
WIRE 1504 -144 1424 -144
WIRE 784 -96 784 -176
WIRE 1504 -80 1504 -144
WIRE 1504 48 1504 0
WIRE 1504 48 1392 48
WIRE 1568 48 1504 48
WIRE 1712 48 1712 16
WIRE 1712 48 1648 48
WIRE 1760 48 1712 48
WIRE 1008 128 912 128
WIRE 1168 128 1088 128
WIRE 1264 128 1168 128
WIRE 1296 128 1264 128
WIRE 1440 128 1296 128
WIRE 160 144 160 112
WIRE 160 144 64 144
WIRE 208 144 160 144
WIRE 336 144 288 144
WIRE 416 144 336 144
WIRE 1568 144 1504 144
WIRE 1712 144 1648 144
WIRE 1760 144 1712 144
WIRE 1392 160 1392 48
WIRE 1440 160 1392 160
FLAG 160 208 0
FLAG 64 224 0
FLAG 336 224 0
FLAG 416 208 0
FLAG 416 144 VGnd
IOPIN 416 144 Out
FLAG 1712 224 0
FLAG 1472 176 0
FLAG 1264 208 0
FLAG 1168 192 0
FLAG 912 208 0
FLAG 1392 -112 0
FLAG 1040 -128 0
FLAG 496 -128 0
FLAG 784 -16 0
FLAG 64 -32 0
FLAG 96 -224 Vin
IOPIN 96 -224 Out
FLAG 160 112 Vcc
IOPIN 160 112 Out
FLAG 1040 -192 Vcc
IOPIN 1040 -192 In
FLAG 496 -192 Vcc
IOPIN 496 -192 In
FLAG 1392 -176 Vcc
IOPIN 1392 -176 In
FLAG 1472 112 Vcc
IOPIN 1472 112 In
FLAG 1712 -64 Vcc
IOPIN 1712 -64 In
FLAG 576 -304 V1d
IOPIN 576 -304 Out
FLAG 1120 -304 V1c
IOPIN 1120 -304 Out
FLAG 1504 -272 V1b
IOPIN 1504 -272 Out
FLAG 1760 48 Signal
IOPIN 1760 48 Out
FLAG 1760 144 Slice
IOPIN 1760 144 Out
FLAG 1296 48 VGnd
IOPIN 1296 48 In
FLAG 1360 -128 VGnd
IOPIN 1360 -128 In
FLAG 464 -144 VGnd
IOPIN 464 -144 In
FLAG 1008 -144 VGnd
IOPIN 1008 -144 In
FLAG 912 128 Threshold
SYMBOL voltage 64 128 R0
WINDOW 123 0 0 Left 0
WINDOW 39 0 0 Left 0
SYMATTR InstName V1
SYMATTR Value 5
SYMBOL cap 144 144 R0
SYMATTR InstName C1
SYMATTR Value 1µ
SYMBOL cap 400 144 R0
SYMATTR InstName C2
SYMATTR Value 10n
SYMBOL res 320 128 R0
SYMATTR InstName R1
SYMATTR Value 10k
SYMBOL res 304 128 R90
WINDOW 0 0 56 VBottom 2
WINDOW 3 32 56 VTop 2
SYMATTR InstName R2
SYMATTR Value 10k
SYMBOL voltage 64 -128 R0
WINDOW 123 0 0 Left 0
WINDOW 39 0 0 Left 0
SYMATTR InstName V2
SYMATTR Value AC 5m
SYMBOL res 256 -192 R90
WINDOW 0 0 56 VBottom 2
WINDOW 3 32 56 VTop 2
SYMATTR InstName R3
SYMATTR Value 10k
SYMBOL cap 368 -192 R90
WINDOW 0 0 32 VBottom 2
WINDOW 3 32 32 VTop 2
SYMATTR InstName C3
SYMATTR Value 10n
SYMBOL res 560 -320 R90
WINDOW 0 0 56 VBottom 2
WINDOW 3 32 56 VTop 2
SYMATTR InstName R4
SYMATTR Value 56k
SYMBOL res 752 -192 R90
WINDOW 0 0 56 VBottom 2
WINDOW 3 32 56 VTop 2
SYMATTR InstName R5
SYMATTR Value 6k2
SYMBOL TLV272 496 -160 R0
SYMATTR InstName U1
SYMBOL TLV272 1040 -160 R0
SYMATTR InstName U2
SYMBOL TLV272 1392 -144 R0
SYMATTR InstName U3
SYMBOL TLV272 1472 144 R0
SYMATTR InstName U4
SYMBOL res 800 0 R180
WINDOW 0 36 76 Left 2
WINDOW 3 36 40 Left 2
SYMATTR InstName R6
SYMATTR Value 1k
SYMBOL cap 912 -192 R90
WINDOW 0 0 32 VBottom 2
WINDOW 3 32 32 VTop 2
SYMATTR InstName C4
SYMATTR Value 1n
SYMBOL cap 912 -320 R90
WINDOW 0 0 32 VBottom 2
WINDOW 3 32 32 VTop 2
SYMATTR InstName C5
SYMATTR Value 1n
SYMBOL res 1104 -272 R90
WINDOW 0 0 56 VBottom 2
WINDOW 3 32 56 VTop 2
SYMATTR InstName R7
SYMATTR Value 75k
SYMBOL res 1232 -176 R90
WINDOW 0 0 56 VBottom 2
WINDOW 3 32 56 VTop 2
SYMATTR InstName R8
SYMATTR Value 7k5
SYMBOL cap 1328 -176 R90
WINDOW 0 0 32 VBottom 2
WINDOW 3 32 32 VTop 2
SYMATTR InstName C6
SYMATTR Value 10n
SYMBOL res 1456 -288 R90
WINDOW 0 0 56 VBottom 2
WINDOW 3 32 56 VTop 2
SYMATTR InstName R9
SYMATTR Value 75k
SYMBOL res 1520 16 R180
WINDOW 0 36 76 Left 2
WINDOW 3 36 40 Left 2
SYMATTR InstName R10
SYMATTR Value 4k7
SYMBOL res 1664 32 R90
WINDOW 0 0 56 VBottom 2
WINDOW 3 32 56 VTop 2
SYMATTR InstName R11
SYMATTR Value 120k
SYMBOL res 1728 32 R180
WINDOW 0 36 76 Left 2
WINDOW 3 36 40 Left 2
SYMATTR InstName R12
SYMATTR Value 10k
SYMBOL res 1728 240 R180
WINDOW 0 36 76 Left 2
WINDOW 3 36 40 Left 2
SYMATTR InstName R13
SYMATTR Value 3k9
SYMBOL res 1552 160 R270
WINDOW 0 32 56 VTop 2
WINDOW 3 0 56 VBottom 2
SYMATTR InstName R14
SYMATTR Value 10k
SYMBOL res 1248 112 R0
SYMATTR InstName R15
SYMATTR Value 3Meg3
SYMBOL res 1280 32 R0
SYMATTR InstName R16
SYMATTR Value 120k
SYMBOL res 1104 112 R90
WINDOW 0 0 56 VBottom 2
WINDOW 3 32 56 VTop 2
SYMATTR InstName R17
SYMATTR Value 75k
SYMBOL cap 1152 128 R0
SYMATTR InstName C7
SYMATTR Value 10n
SYMBOL voltage 912 112 R0
WINDOW 123 0 0 Left 0
WINDOW 39 0 0 Left 0
SYMATTR InstName V3
SYMATTR Value 0
SYMBOL Lab5B3 -80 -304 R0
SYMATTR InstName X1
TEXT 40 280 Left 2 ;.ac dec 1000 10k 100k
TEXT 40 320 Left 2 !.tran 8m uic
