Version 4
SHEET 1 880 972
WIRE -432 336 -560 336
WIRE -368 336 -432 336
WIRE -176 336 -368 336
WIRE -16 336 -176 336
WIRE -560 416 -560 336
WIRE -368 432 -368 336
WIRE -560 544 -560 496
WIRE -368 544 -368 496
WIRE -16 576 -16 336
WIRE -432 592 -432 336
WIRE -432 592 -448 592
WIRE -304 592 -432 592
WIRE -160 592 -224 592
WIRE -128 592 -160 592
WIRE 208 592 144 592
WIRE -128 624 -128 592
WIRE -112 624 -128 624
WIRE 112 624 80 624
WIRE 144 624 144 592
WIRE 144 624 112 624
WIRE 400 624 320 624
WIRE -368 672 -448 672
WIRE -304 672 -368 672
WIRE -176 672 -224 672
WIRE -128 672 -176 672
WIRE -128 688 -128 672
WIRE -112 688 -128 688
WIRE 144 688 80 688
WIRE 208 688 144 688
WIRE 400 688 320 688
WIRE -368 784 -368 672
WIRE -368 784 -400 784
WIRE -16 784 -16 720
WIRE -16 784 -368 784
WIRE -400 816 -400 784
FLAG -368 544 0
FLAG -560 544 0
FLAG -160 592 b1
FLAG -176 672 b2
FLAG -448 592 o1
IOPIN -448 592 In
FLAG -448 672 o2
IOPIN -448 672 In
FLAG 400 624 omega
IOPIN 400 624 Out
FLAG 400 688 enc
IOPIN 400 688 Out
FLAG 112 624 dc1
FLAG 144 688 dc2
FLAG -176 336 +10Vdc
FLAG -400 816 0
SYMBOL res -208 576 R90
WINDOW 0 0 56 VBottom 2
WINDOW 3 32 56 VTop 2
SYMATTR InstName RB1
SYMATTR Value 470
SYMBOL res -208 656 R90
WINDOW 0 0 56 VBottom 2
WINDOW 3 32 56 VTop 2
SYMATTR InstName RB2
SYMATTR Value 470
SYMBOL cap -384 432 R0
SYMATTR InstName C1
SYMATTR Value 47µ
SYMBOL voltage -560 400 R0
SYMATTR InstName V_10
SYMATTR Value 10
SYMBOL Motor_Model -16 656 R0
SYMATTR InstName X1
SYMBOL DC_motor_model 256 640 R0
SYMATTR InstName X2
TEXT -592 840 Left 2 !.tran .35
